*Heading
*Preprint, echo=NO, model=NO, history=NO, contact=NO
**  ----------------------------------------------------------  **
*Node, nset=node_all
1	,	0	,	0
2	,	2	,	0
3	,	4	,	0
4	,	6	,	0
5	,	8	,	0
6	,	10	,	0
7	,	12	,	0
8	,	14	,	0
9	,	16	,	0
10	,	18	,	0
11	,	20	,	0
12	,	22	,	0
13	,	24	,	0
14	,	26	,	0
15	,	28	,	0
16	,	30	,	0
17	,	32	,	0
18	,	34	,	0
19	,	36	,	0
20	,	38	,	0
** ... 10508 like lines cut
**  ----------------------------------------------------------  **
*Element, type=CPS4R
1	,	1	,	2	,	205	,	204
2	,	2	,	3	,	206	,	205
3	,	3	,	4	,	207	,	206
4	,	4	,	5	,	208	,	207
5	,	5	,	6	,	209	,	208
6	,	6	,	7	,	210	,	209
7	,	7	,	8	,	211	,	210
8	,	8	,	9	,	212	,	211
9	,	9	,	10	,	213	,	212
10	,	10	,	11	,	214	,	213
11	,	11	,	12	,	215	,	214
12	,	12	,	13	,	216	,	215
13	,	13	,	14	,	217	,	216
14	,	14	,	15	,	218	,	217
15	,	15	,	16	,	219	,	218
16	,	16	,	17	,	220	,	219
17	,	17	,	18	,	221	,	220
18	,	18	,	19	,	222	,	221
19	,	19	,	20	,	223	,	222
20	,	20	,	21	,	224	,	223
** ... 10206 like lines cut
**  ----------------------------------------------------------  **  
*Elset, elset = Set-1-FRACTURE, generate
	1, 10076, 1
*Elset, elset = Set-1-elastic, generate
	10077, 10236, 1
**  ----------------------------------------------------------  **  
** Section: Section-1
*Solid Section, elset=Set-1-FRACTURE, material=MAT1
  1.0
*Solid Section, elset=Set-1-elastic, material=ELASTICITY
  1.0  
**  ----------------------------------------------------------  **
*User Element, Nodes=4, Type=VU2, Properties=4, Coordinates=2, Variables=20
	11
*Element, Type=VU2
100001	,	1	,	2	,	205	,	204
100002	,	2	,	3	,	206	,	205
100003	,	3	,	4	,	207	,	206
100004	,	4	,	5	,	208	,	207
100005	,	5	,	6	,	209	,	208
100006	,	6	,	7	,	210	,	209
100007	,	7	,	8	,	211	,	210
100008	,	8	,	9	,	212	,	211
100009	,	9	,	10	,	213	,	212
100010	,	10	,	11	,	214	,	213
100011	,	11	,	12	,	215	,	214
100012	,	12	,	13	,	216	,	215
100013	,	13	,	14	,	217	,	216
100014	,	14	,	15	,	218	,	217
100015	,	15	,	16	,	219	,	218
100016	,	16	,	17	,	220	,	219
100017	,	17	,	18	,	221	,	220
100018	,	18	,	19	,	222	,	221
100019	,	19	,	20	,	223	,	222
100020	,	20	,	21	,	224	,	223
** ... 10056 like lines cut
**  ----------------------------------------------------------  ** 
*Elset, elset=fracture, generate
	100001, 110076, 1
**  ----------------------------------------------------------  ** 
*Uel Property, Elset=fracture
	50000, 7.0, 10.0, 10
**  ----------------------------------------------------------  **
*Material, name=ELASTICITY
*Density
	1e-6
*Elastic
	210000., 0.0
**
*Material, name=MAT1
*Density
	1e-6
*Depvar, delete=16
     16,
     1,  Ele_Iden, "element identification"
     11, PHI_A, "Phi plus (Model A)"
     14, H, "History variable"
     15, d, "phase field variable"
*User Defined Field
*User Material, constants=5
	50000, 7.0, 10.0, 10
**
**  ----------------------------------------------------------  **
**
** PREDEFINED FIELDS
** 
** Name: Predefined Field-1   Type: Void ratio
*Initial Conditions, type=field, variable=1
	node_all, 0.0
**  ----------------------------------------------------------  **
*Nset, nset=support-left
  10359
*Nset, nset=support-right
  10414
*Nset, nset=load
  10516,10517,10518,10519,10520,10521
  10523,10524,10525,10526,10527,10528
**  
*Nset, nset=center 
2538	,
2741	,
2944	,
3147	,
3350	,
3553	,
3756	,
3959	,
4162	,
4365	,
4568	,
4771	,
4974	,
5177	,
5380	,
5583	,
5786	,
5989	,
6192	,
6395	,
** ... 19 like lines cut
**  ----------------------------------------------------------  **
***Node
**	100000001, 0, 400
***Nset, nset=node_ref
**	100000001
***MPC
**	BEAM, load, node_ref
**  ----------------------------------------------------------  **
*Amplitude, name=Amp-1, definition=EQUALLY SPACED, fixed interval=1000.
             0.,              10
**  ----------------------------------------------------------  **
*Boundary
	support-left, 2, 2
	support-right, 2, 2
	center, 1, 1
**	node_ref, 1, 1
**  ----------------------------------------------------------  **
** 
** STEP: Step-1
** 
*Step, name=Step-1, nlgeom=YES
***Dynamic, Explicit
*Dynamic Temperature-displacement, Explicit
	, 1000
*Bulk Viscosity
	0.6, 1.2
** 
** BOUNDARY CONDITIONS
** 
** Name: BC-2 Type: Displacement/Rotation
*Boundary, amplitude=Amp-1
	load, 2, 2, -0.5
** 
** OUTPUT REQUESTS
** 
*Restart, write, number interval=1, time marks=NO
** 
** FIELD OUTPUT: F-Output-1
** 
*Output, field, time interval= 10
*Node Output
	NT, U, RF
*Element Output, directions=YES
	FV, HFL, LE, PE, PEEQ, PEEQVAVG, PEVAVG, S, SDV, TEMP
** 
** HISTORY OUTPUT: H-Output-1
** 
*Output, history, variable=PRESELECT,time interval= 10
*End Step